Circuit: * D:\PES\Sem 4\Digital VLSI design\Project\Siddhant\Draft1.asc

WARNING: Less than two connections to node X1:NC_01.  This node is used by M:X1:17.
Direct Newton iteration for .op point succeeded.
Changing Tseed to 1e-010
Changing Tseed to 1e-012
Changing Tseed to 1e-009
Changing Tseed to 1e-013

Date: Tue Apr 04 13:49:16 2023
Total elapsed time: 0.287 seconds.

tnom = 27
temp = 27
method = modified trap
totiter = 4760
traniter = 4748
tranpoints = 1992
accept = 1816
rejected = 172
matrix size = 23
fillins = 0
solver = Normal
Thread vector: 10.3/15.7[1] 6.2/3.4[2] 0.8/1.6[1] 0.3/2.4[1]  2592/500
Matrix Compiler1: 1.63 KB object code size  0.7/0.3/[0.2]
Matrix Compiler2: 2.78 KB object code size  0.4/0.7/[0.2]

