Circuit: * D:\PES\Sem 4\Digital VLSI design\DVLSI-Project-3-bit-ALU\Shashank\NAND_TB.asc

Limiting rise time of source v2 to 0.0002
Limiting fall time of source v2 to 0.0002
Limiting rise time of source v1 to 0.0001
Limiting fall time of source v1 to 0.0001
Direct Newton iteration for .op point succeeded.

Date: Fri Apr 07 18:02:57 2023
Total elapsed time: 0.075 seconds.

tnom = 27
temp = 27
method = modified trap
totiter = 3127
traniter = 3122
tranpoints = 1201
accept = 1162
rejected = 39
matrix size = 8
fillins = 0
solver = Normal
Matrix Compiler1: 336 bytes object code size  0.1/0.1/[0.1]
Matrix Compiler2: off  [0.1]/0.1/0.1

