Circuit: * D:\PES\Sem 4\Digital VLSI design\DVLSI-Project-3-bit-ALU\Shashank\NOR_TB.asc

Limiting rise time of source v2 to 0.0002
Limiting fall time of source v2 to 0.0002
Limiting rise time of source v1 to 0.0001
Limiting fall time of source v1 to 0.0001
Direct Newton iteration for .op point succeeded.

Date: Fri Apr 07 18:03:14 2023
Total elapsed time: 0.063 seconds.

tnom = 27
temp = 27
method = modified trap
totiter = 2721
traniter = 2710
tranpoints = 1199
accept = 1162
rejected = 37
matrix size = 8
fillins = 0
solver = Normal
Matrix Compiler1: 318 bytes object code size  0.1/0.0/[0.0]
Matrix Compiler2: 670 bytes object code size  0.1/0.1/[0.1]

