Circuit: * D:\PES\Sem 4\Digital VLSI design\DVLSI-Project-3-bit-ALU\Siddharth\4_1_mux_tb.asc

Direct Newton iteration for .op point succeeded.
Heightened Def Con from 0.12 ++++++++++to 0.12
Heightened Def Con from 0.28 +++++++++++to 0.28

Date: Fri Apr 07 15:43:06 2023
Total elapsed time: 0.274 seconds.

tnom = 27
temp = 27
method = modified trap
totiter = 23769
traniter = 23754
tranpoints = 9137
accept = 7875
rejected = 1285
matrix size = 23
fillins = 4
solver = Normal
Matrix Compiler1: 1.98 KB object code size  0.5/0.2/[0.2]
Matrix Compiler2: off  [0.2]/0.3/0.2

