Circuit: * D:\PES\Sem 4\Digital VLSI design\DVLSI-Project-3-bit-ALU\Siddharth\ADDER_TB.asc

Direct Newton iteration for .op point succeeded.
Changing Tseed to 1e-010
Changing Tseed to 1e-012
Changing Tseed to 1e-009
Changing Tseed to 1e-013
Changing Tseed to 1e-008
Changing Tseed to 1e-014

Date: Sat Apr 08 12:06:59 2023
Total elapsed time: 0.164 seconds.

tnom = 27
temp = 27
method = modified trap
totiter = 9132
traniter = 9092
tranpoints = 2678
accept = 2344
rejected = 328
matrix size = 26
fillins = 1
solver = Normal
Thread vector: 5.3/4.0[2] 2.7/1.9[2] 0.5/0.8[1] 0.2/0.6[1]  2592/500
Matrix Compiler1: 1.83 KB object code size  0.6/0.2/[0.1]
Matrix Compiler2: off  [0.3]/0.4/0.4

