Circuit: * D:\PES\Sem 4\Digital VLSI design\DVLSI-Project-3-bit-ALU\Siddharth\Draft4.asc

Direct Newton iteration for .op point succeeded.
Changing Tseed to 1e-010
Changing Tseed to 1e-012
Changing Tseed to 1e-009
Changing Tseed to 1e-013

Date: Sat Apr 08 02:00:20 2023
Total elapsed time: 0.200 seconds.

tnom = 27
temp = 27
method = modified trap
totiter = 10127
traniter = 10109
tranpoints = 2747
accept = 2388
rejected = 355
matrix size = 57
fillins = 4
solver = Normal
Thread vector: 8.7/6.8[4] 4.6/2.8[4] 1.1/1.6[1] 0.2/0.5[1]  2592/500
Matrix Compiler1: 3.52 KB object code size  0.9/0.4/[0.3]
Matrix Compiler2: 5.66 KB object code size  0.5/0.7/[0.4]

