Circuit: * D:\PES\Sem 4\Digital VLSI design\DVLSI-Project-3-bit-ALU\Siddharth\Draft1.asc

Direct Newton iteration for .op point succeeded.
Heightened Def Con from 0.12 ++++++++++to 0.12
Heightened Def Con from 0.28 +++++++++++to 0.28

Date: Fri Apr 07 15:39:57 2023
Total elapsed time: 0.292 seconds.

tnom = 27
temp = 27
method = modified trap
totiter = 23697
traniter = 23682
tranpoints = 9139
accept = 7869
rejected = 1293
matrix size = 23
fillins = 4
solver = Normal
Matrix Compiler1: 1.98 KB object code size  0.5/0.2/[0.2]
Matrix Compiler2: 2.43 KB object code size  0.2/0.3/[0.2]

