Circuit: * D:\PES\Sem 4\Digital VLSI design\DVLSI-Project-3-bit-ALU\Siddharth\MUX_TB.asc

Direct Newton iteration for .op point succeeded.

Date: Sat Apr 08 00:42:31 2023
Total elapsed time: 0.135 seconds.

tnom = 27
temp = 27
method = modified trap
totiter = 7110
traniter = 7096
tranpoints = 3321
accept = 3283
rejected = 38
matrix size = 33
fillins = 2
solver = Normal
Matrix Compiler1: 1.86 KB object code size  1.3/0.3/[0.1]
Matrix Compiler2: 3.09 KB object code size  0.6/0.4/[0.2]

